omf/static/testFiles/3300 bus feeder with pv and storage/MasterCleanPV&Storage.dss


!!!master.dss
clear
new object=circuit.feeder_rdt1527-rhs0_1247x


! redirect vsource.dss
! redirect linecode.dss
! redirect loadshape.dss
! redirect growthshape.dss
! redirect xycurve.dss
! redirect tcc_curve.dss
! redirect spectrum.dss
! redirect line.dss
! redirect load.dss
! redirect transformer.dss
! redirect regcontrol.dss
! redirect storage.dss
! redirect fuse.dss
! redirect pvsystem.dss
! redirect invcontrol.dss
! makebuslist
! redirect busvoltagebases.dss ! set voltage bases
! buscoords buscoords.dss
! giscoords giscoords.dss


!!!loadshape.dss
new object=loadshape.default npts=24 interval=1 mult=[0.677,0.6256,0.6087,0.5833,0.58028,0.6025,0.657,0.7477,0.832,0.88,0.94,0.989,0.985,0.98,0.9898,0.999,1,0.958,0.936,0.913,0.876,0.876,0.828,0.756]
new object=loadshape.gso_36.1751_-79.7183_45_225 npts=96 interval=0.25 mult=[0,0,0,0,0,0,0,0,0,0,0,0,0,0,0,0,0,0,0,0,0,0,0,0,0,0,0,0,0,0,0.00512,0.01451,0.02594,0.03142,0.0561,0.10866,0.16816,0.22862,0.29268,0.35557,0.41925,0.47946,0.5396,0.59557,0.65037,0.70112,0.74976,0.79334,0.83416,0.86806,0.89862,0.92379,0.94529,0.95911,0.96906,0.97082,0.9687,0.96827,0.95414,0.92836,0.89921,0.85885,0.81586,0.7549,0.69267,0.60434,0.51713,0.38254,0.19526,0.00811,0,0,0,0,0,0,0,0,0,0,0,0,0,0,0,0,0,0,0,0,0,0,0,0,0,0]
new object=loadshape.gso_36.2120_-79.7183_35_135 npts=96 interval=0.25 mult=[0,0,0,0,0,0,0,0,0,0,0,0,0,0,0,0,0,0,0,0,0,0,0,0,0,0,0,0,0,0,0,0.16156,0.33408,0.43179,0.54416,0.61364,0.68338,0.73531,0.78581,0.82327,0.85007,0.86945,0.8855,0.90204,0.91496,0.91535,0.91189,0.90103,0.8864,0.86546,0.84097,0.80949,0.77494,0.73499,0.69248,0.6455,0.59674,0.54283,0.48946,0.43071,0.37242,0.31041,0.25048,0.18968,0.13342,0.07878,0.03293,0.0225,0.01728,0.00864,0,0,0,0,0,0,0,0,0,0,0,0,0,0,0,0,0,0,0,0,0,0,0,0,0,0]
new object=loadshape.gso_36.1751_-79.7183_15_225 npts=96 interval=0.25 mult=[0,0,0,0,0,0,0,0,0,0,0,0,0,0,0,0,0,0,0,0,0,0,0,0,0,0,0,0,0,0,0.0059,0.01671,0.03594,0.07457,0.12407,0.17333,0.22745,0.27896,0.33238,0.38245,0.43214,0.47705,0.52077,0.55942,0.59604,0.6281,0.65746,0.68158,0.70259,0.717,0.72802,0.73417,0.73686,0.73295,0.72564,0.71179,0.69481,0.6756,0.64975,0.61573,0.57972,0.53706,0.4935,0.43991,0.38723,0.32205,0.26086,0.18058,0.0909,0.00934,0,0,0,0,0,0,0,0,0,0,0,0,0,0,0,0,0,0,0,0,0,0,0,0,0,0]
new object=loadshape.gso_36.2489_-79.7183_25_180 npts=96 interval=0.25 mult=[0,0,0,0,0,0,0,0,0,0,0,0,0,0,0,0,0,0,0,0,0,0,0,0,0,0,0,0,0,0,0,0.07562,0.16591,0.23917,0.32754,0.39312,0.46251,0.5219,0.58222,0.63374,0.67947,0.72329,0.76512,0.79992,0.83191,0.85608,0.8769,0.89137,0.90219,0.90659,0.90723,0.90018,0.88944,0.87246,0.85205,0.82463,0.79424,0.75696,0.72262,0.67563,0.62727,0.57199,0.51671,0.45235,0.39017,0.31729,0.25016,0.16688,0.08023,0.00905,0,0,0,0,0,0,0,0,0,0,0,0,0,0,0,0,0,0,0,0,0,0,0,0,0,0]
new object=loadshape.gso_36.1751_-79.7183_35_270 npts=96 interval=0.25 mult=[0,0,0,0,0,0,0,0,0,0,0,0,0,0,0,0,0,0,0,0,0,0,0,0,0,0,0,0,0,0,0.00546,0.01546,0.02578,0.03068,0.03569,0.0387,0.04179,0.04394,0.04613,0.04785,0.05534,0.10562,0.15717,0.20747,0.25735,0.30579,0.35296,0.39722,0.43955,0.4774,0.5127,0.54439,0.57314,0.59622,0.61603,0.62969,0.63989,0.64753,0.64821,0.63967,0.62775,0.60704,0.58339,0.54556,0.50562,0.44517,0.38421,0.28633,0.14956,0.00864,0,0,0,0,0,0,0,0,0,0,0,0,0,0,0,0,0,0,0,0,0,0,0,0,0,0]
new object=loadshape.gso_36.2120_-79.7183_15_225 npts=96 interval=0.25 mult=[0,0,0,0,0,0,0,0,0,0,0,0,0,0,0,0,0,0,0,0,0,0,0,0,0,0,0,0,0,0,0,0.0172,0.0335,0.07389,0.12483,0.17356,0.22715,0.27864,0.33203,0.38157,0.43072,0.47348,0.51463,0.55593,0.59561,0.62766,0.65702,0.68082,0.7015,0.71678,0.72869,0.73396,0.73575,0.7316,0.72405,0.71079,0.6944,0.67074,0.6482,0.61506,0.57995,0.53618,0.49154,0.43828,0.38592,0.32132,0.26065,0.18035,0.09083,0.00934,0,0,0,0,0,0,0,0,0,0,0,0,0,0,0,0,0,0,0,0,0,0,0,0,0,0]
new object=loadshape.gso_36.1751_-79.7183_45_135 npts=96 interval=0.25 mult=[0,0,0,0,0,0,0,0,0,0,0,0,0,0,0,0,0,0,0,0,0,0,0,0,0,0,0,0,0,0,0.00512,0.20093,0.3991,0.51389,0.62682,0.70023,0.77326,0.8249,0.87452,0.9101,0.93302,0.95268,0.96884,0.97527,0.97787,0.97267,0.96354,0.94722,0.92712,0.89919,0.86786,0.83156,0.7923,0.74709,0.69958,0.64707,0.59312,0.53768,0.47879,0.41568,0.35344,0.28993,0.22894,0.16694,0.11006,0.05591,0.0319,0.02271,0.01622,0.00811,0,0,0,0,0,0,0,0,0,0,0,0,0,0,0,0,0,0,0,0,0,0,0,0,0,0]
new object=loadshape.gso_36.2120_-79.7183_35_90 npts=96 interval=0.25 mult=[0,0,0,0,0,0,0,0,0,0,0,0,0,0,0,0,0,0,0,0,0,0,0,0,0,0,0,0,0,0,0,0.14644,0.29529,0.374,0.46175,0.51045,0.55743,0.58832,0.61663,0.63334,0.64242,0.64382,0.64193,0.63908,0.63263,0.61687,0.59776,0.57304,0.54527,0.51293,0.47792,0.43842,0.39686,0.35197,0.3056,0.25746,0.20863,0.15773,0.10172,0.05185,0.05101,0.04851,0.04601,0.04301,0.04004,0.0356,0.03119,0.0225,0.01728,0.00864,0,0,0,0,0,0,0,0,0,0,0,0,0,0,0,0,0,0,0,0,0,0,0,0,0,0]
new object=loadshape.gso_36.2120_-79.7183_35_180 npts=96 interval=0.25 mult=[0,0,0,0,0,0,0,0,0,0,0,0,0,0,0,0,0,0,0,0,0,0,0,0,0,0,0,0,0,0,0,0.09576,0.20991,0.29039,0.38657,0.45759,0.53223,0.59585,0.66039,0.71568,0.76359,0.80495,0.84391,0.88415,0.92187,0.94774,0.97018,0.98521,0.9965,1.00102,1.00169,0.99418,0.9829,0.96482,0.94321,0.91498,0.8837,0.8444,0.80969,0.76009,0.70909,0.6489,0.58874,0.5194,0.45226,0.37218,0.29796,0.20326,0.09816,0.00864,0,0,0,0,0,0,0,0,0,0,0,0,0,0,0,0,0,0,0,0,0,0,0,0,0,0]
new object=loadshape.gso_36.2120_-79.7183_45_270 npts=96 interval=0.25 mult=[0,0,0,0,0,0,0,0,0,0,0,0,0,0,0,0,0,0,0,0,0,0,0,0,0,0,0,0,0,0,0,0.01494,0.02369,0.03187,0.038,0.04117,0.04445,0.0472,0.04997,0.05183,0.05919,0.06142,0.06357,0.11158,0.16644,0.22046,0.27374,0.32472,0.37417,0.42057,0.46482,0.50452,0.54143,0.57339,0.60216,0.62564,0.64562,0.65792,0.67137,0.67207,0.66893,0.65401,0.63546,0.60241,0.56623,0.50614,0.44373,0.33592,0.17637,0.00811,0,0,0,0,0,0,0,0,0,0,0,0,0,0,0,0,0,0,0,0,0,0,0,0,0,0]
new object=loadshape.gso_36.2120_-79.7183_25_90 npts=96 interval=0.25 mult=[0,0,0,0,0,0,0,0,0,0,0,0,0,0,0,0,0,0,0,0,0,0,0,0,0,0,0,0,0,0,0,0.11562,0.23535,0.30524,0.38451,0.43305,0.48132,0.51662,0.55026,0.57396,0.59175,0.60196,0.60916,0.61554,0.61865,0.61279,0.60364,0.58883,0.57088,0.54812,0.52248,0.49184,0.4588,0.42182,0.38292,0.34141,0.29866,0.25277,0.20268,0.15518,0.10848,0.06097,0.04285,0.04039,0.03797,0.03409,0.03024,0.02209,0.01811,0.00905,0,0,0,0,0,0,0,0,0,0,0,0,0,0,0,0,0,0,0,0,0,0,0,0,0,0]
new object=loadshape.gso_36.2120_-79.7183_25_180 npts=96 interval=0.25 mult=[0,0,0,0,0,0,0,0,0,0,0,0,0,0,0,0,0,0,0,0,0,0,0,0,0,0,0,0,0,0,0,0.07828,0.17244,0.24364,0.32911,0.3941,0.46275,0.52216,0.5825,0.63463,0.68103,0.72068,0.75799,0.7961,0.83176,0.85658,0.87804,0.89252,0.90335,0.90776,0.9084,0.90134,0.8906,0.87338,0.85272,0.82587,0.79606,0.75871,0.72432,0.67752,0.62936,0.57285,0.51638,0.45199,0.38981,0.31694,0.24993,0.16695,0.08055,0.00905,0,0,0,0,0,0,0,0,0,0,0,0,0,0,0,0,0,0,0,0,0,0,0,0,0,0]
new object=loadshape.gso_36.1751_-79.7183_15_135 npts=96 interval=0.25 mult=[0,0,0,0,0,0,0,0,0,0,0,0,0,0,0,0,0,0,0,0,0,0,0,0,0,0,0,0,0,0,0.0059,0.09182,0.1896,0.25883,0.33296,0.38986,0.44894,0.49722,0.54534,0.58542,0.6202,0.65026,0.67789,0.6984,0.71591,0.72749,0.73571,0.7379,0.73661,0.72839,0.71676,0.70041,0.68086,0.65534,0.627,0.59329,0.55734,0.518,0.47576,0.42808,0.37996,0.32883,0.27867,0.22471,0.17398,0.1213,0.07563,0.03247,0.01868,0.00934,0,0,0,0,0,0,0,0,0,0,0,0,0,0,0,0,0,0,0,0,0,0,0,0,0,0]
new object=loadshape.gso_36.1751_-79.7183_25_90 npts=96 interval=0.25 mult=[0,0,0,0,0,0,0,0,0,0,0,0,0,0,0,0,0,0,0,0,0,0,0,0,0,0,0,0,0,0,0.00572,0.12058,0.23899,0.31124,0.38381,0.43278,0.48162,0.51694,0.55061,0.57492,0.59332,0.60638,0.61646,0.6194,0.6191,0.61326,0.60412,0.58958,0.57187,0.54835,0.52198,0.49206,0.45968,0.42295,0.38431,0.34232,0.29911,0.25014,0.20397,0.15563,0.10807,0.06134,0.04372,0.04128,0.0389,0.03456,0.03022,0.02207,0.01811,0.00905,0,0,0,0,0,0,0,0,0,0,0,0,0,0,0,0,0,0,0,0,0,0,0,0,0,0]
new object=loadshape.gso_36.1751_-79.7183_35_90 npts=96 interval=0.25 mult=[0,0,0,0,0,0,0,0,0,0,0,0,0,0,0,0,0,0,0,0,0,0,0,0,0,0,0,0,0,0,0.00546,0.15313,0.29927,0.38157,0.46108,0.51015,0.55771,0.58862,0.61695,0.63428,0.64399,0.64848,0.64957,0.64304,0.63305,0.6173,0.5982,0.57374,0.54619,0.51311,0.47741,0.43858,0.39764,0.35299,0.30689,0.2583,0.20905,0.15358,0.10291,0.05184,0.05018,0.0485,0.04687,0.0439,0.04096,0.03607,0.03117,0.02249,0.01728,0.00864,0,0,0,0,0,0,0,0,0,0,0,0,0,0,0,0,0,0,0,0,0,0,0,0,0,0]
new object=loadshape.gso_36.2120_-79.7183_45_180 npts=96 interval=0.25 mult=[0,0,0,0,0,0,0,0,0,0,0,0,0,0,0,0,0,0,0,0,0,0,0,0,0,0,0,0,0,0,0,0.11059,0.24151,0.32904,0.43321,0.50824,0.58676,0.65279,0.71972,0.77659,0.82479,0.86671,0.90625,0.94747,0.98619,1.01239,1.03519,1.05035,1.06179,1.06631,1.06699,1.05925,1.04774,1.02931,1.00736,0.97853,0.94667,0.90651,0.87233,0.82135,0.76894,0.70677,0.64461,0.57225,0.50205,0.417,0.33767,0.23388,0.11308,0.00811,0,0,0,0,0,0,0,0,0,0,0,0,0,0,0,0,0,0,0,0,0,0,0,0,0,0]
new object=loadshape.gso_36.2120_-79.7183_25_270 npts=96 interval=0.25 mult=[0,0,0,0,0,0,0,0,0,0,0,0,0,0,0,0,0,0,0,0,0,0,0,0,0,0,0,0,0,0,0,0.01668,0.02313,0.03026,0.03516,0.03707,0.03911,0.04073,0.05846,0.1054,0.15784,0.20458,0.25074,0.29652,0.34182,0.38326,0.42294,0.45883,0.49238,0.52181,0.54849,0.5698,0.58799,0.60089,0.61054,0.61496,0.61613,0.61014,0.60421,0.5883,0.56959,0.54131,0.51091,0.47002,0.42817,0.37022,0.31332,0.22794,0.11837,0.00905,0,0,0,0,0,0,0,0,0,0,0,0,0,0,0,0,0,0,0,0,0,0,0,0,0,0]
new object=loadshape.gso_36.2489_-79.7183_35_180 npts=96 interval=0.25 mult=[0,0,0,0,0,0,0,0,0,0,0,0,0,0,0,0,0,0,0,0,0,0,0,0,0,0,0,0,0,0,0,0.09233,0.20178,0.28514,0.38499,0.4566,0.53203,0.59564,0.66017,0.71483,0.76205,0.8081,0.85211,0.88853,0.92208,0.94728,0.96904,0.98406,0.99534,0.99986,1.00053,0.99303,0.98175,0.96389,0.94252,0.91367,0.8818,0.84255,0.8079,0.75813,0.70694,0.64802,0.58907,0.51973,0.45257,0.37244,0.29803,0.20307,0.09778,0.00864,0,0,0,0,0,0,0,0,0,0,0,0,0,0,0,0,0,0,0,0,0,0,0,0,0,0]
new object=loadshape.gso_36.1751_-79.7183_15_180 npts=96 interval=0.25 mult=[0,0,0,0,0,0,0,0,0,0,0,0,0,0,0,0,0,0,0,0,0,0,0,0,0,0,0,0,0,0,0.0059,0.06052,0.13324,0.19355,0.26184,0.31944,0.38072,0.43427,0.48874,0.53684,0.58113,0.62094,0.65887,0.69026,0.719,0.74208,0.76199,0.77588,0.78632,0.78955,0.78921,0.78374,0.77477,0.75911,0.74019,0.7149,0.6868,0.65656,0.62033,0.57676,0.53192,0.48172,0.43155,0.37363,0.31788,0.25369,0.19523,0.12626,0.06084,0.00934,0,0,0,0,0,0,0,0,0,0,0,0,0,0,0,0,0,0,0,0,0,0,0,0,0,0]
new object=loadshape.gso_36.1751_-79.7183_45_270 npts=96 interval=0.25 mult=[0,0,0,0,0,0,0,0,0,0,0,0,0,0,0,0,0,0,0,0,0,0,0,0,0,0,0,0,0,0,0.00512,0.01451,0.02594,0.03142,0.03706,0.04072,0.04444,0.04719,0.04996,0.05222,0.0599,0.06185,0.06372,0.11232,0.16682,0.22084,0.27413,0.32524,0.37488,0.42068,0.46427,0.50465,0.54229,0.57453,0.60358,0.62654,0.64596,0.66327,0.67285,0.6727,0.66871,0.65496,0.63756,0.60411,0.56748,0.50678,0.44393,0.33624,0.17643,0.00811,0,0,0,0,0,0,0,0,0,0,0,0,0,0,0,0,0,0,0,0,0,0,0,0,0,0]
new object=loadshape.gso_36.2120_-79.7183_15_135 npts=96 interval=0.25 mult=[0,0,0,0,0,0,0,0,0,0,0,0,0,0,0,0,0,0,0,0,0,0,0,0,0,0,0,0,0,0,0,0.08838,0.18627,0.25401,0.33369,0.39013,0.44864,0.4969,0.545,0.58448,0.61862,0.64556,0.66984,0.69408,0.71548,0.72706,0.73527,0.73712,0.7355,0.72817,0.71742,0.7002,0.6798,0.65406,0.62548,0.59233,0.55692,0.51598,0.47432,0.4275,0.38027,0.32817,0.27707,0.2233,0.17272,0.12058,0.07544,0.03234,0.01868,0.00934,0,0,0,0,0,0,0,0,0,0,0,0,0,0,0,0,0,0,0,0,0,0,0,0,0,0]
new object=loadshape.gso_36.1751_-79.7183_35_180 npts=96 interval=0.25 mult=[0,0,0,0,0,0,0,0,0,0,0,0,0,0,0,0,0,0,0,0,0,0,0,0,0,0,0,0,0,0,0.00546,0.09969,0.21339,0.29601,0.38584,0.45725,0.53243,0.59605,0.6606,0.71652,0.76513,0.81052,0.85388,0.88941,0.9221,0.94797,0.97041,0.9859,0.99765,1.00107,1.00063,0.99423,0.98404,0.96616,0.94475,0.91585,0.88392,0.85273,0.81117,0.76069,0.7088,0.64978,0.59073,0.521,0.45348,0.37282,0.29814,0.20349,0.09822,0.00864,0,0,0,0,0,0,0,0,0,0,0,0,0,0,0,0,0,0,0,0,0,0,0,0,0,0]
new object=loadshape.gso_36.1751_-79.7183_45_180 npts=96 interval=0.25 mult=[0,0,0,0,0,0,0,0,0,0,0,0,0,0,0,0,0,0,0,0,0,0,0,0,0,0,0,0,0,0,0.00512,0.1154,0.24514,0.33555,0.43249,0.50786,0.58691,0.65293,0.71986,0.77738,0.82628,0.87259,0.91688,0.95302,0.98632,1.01253,1.03532,1.05097,1.06291,1.06627,1.06579,1.0592,1.04885,1.03059,1.00882,0.97933,0.94681,0.91625,0.87375,0.82189,0.76862,0.70765,0.64661,0.57382,0.50321,0.41759,0.33783,0.23411,0.11313,0.00811,0,0,0,0,0,0,0,0,0,0,0,0,0,0,0,0,0,0,0,0,0,0,0,0,0,0]
new object=loadshape.gso_36.2120_-79.7183_45_135 npts=96 interval=0.25 mult=[0,0,0,0,0,0,0,0,0,0,0,0,0,0,0,0,0,0,0,0,0,0,0,0,0,0,0,0,0,0,0,0.19172,0.39459,0.50336,0.62748,0.70062,0.77309,0.82472,0.87434,0.90923,0.9314,0.94623,0.95752,0.96953,0.97767,0.97246,0.96333,0.94658,0.92606,0.89919,0.86885,0.83156,0.79137,0.74597,0.69825,0.64632,0.59291,0.53473,0.47756,0.41528,0.3539,0.28947,0.2276,0.16577,0.10898,0.0553,0.03191,0.02272,0.01622,0.00811,0,0,0,0,0,0,0,0,0,0,0,0,0,0,0,0,0,0,0,0,0,0,0,0,0,0]
new object=loadshape.gso_36.2120_-79.7183_15_270 npts=96 interval=0.25 mult=[0,0,0,0,0,0,0,0,0,0,0,0,0,0,0,0,0,0,0,0,0,0,0,0,0,0,0,0,0,0,0,0.0172,0.02256,0.02914,0.03351,0.03729,0.07858,0.12191,0.16748,0.21182,0.25919,0.30039,0.34043,0.38005,0.41855,0.4518,0.48286,0.5095,0.53349,0.55299,0.56954,0.5805,0.58832,0.59089,0.59031,0.58476,0.57621,0.56107,0.54526,0.52149,0.49558,0.4616,0.42636,0.38312,0.34009,0.2856,0.23385,0.16341,0.08394,0.00934,0,0,0,0,0,0,0,0,0,0,0,0,0,0,0,0,0,0,0,0,0,0,0,0,0,0]
new object=loadshape.gso_36.1751_-79.7183_35_135 npts=96 interval=0.25 mult=[0,0,0,0,0,0,0,0,0,0,0,0,0,0,0,0,0,0,0,0,0,0,0,0,0,0,0,0,0,0,0.00546,0.16907,0.33828,0.44067,0.54347,0.61329,0.6836,0.73554,0.78605,0.82418,0.85171,0.87549,0.89602,0.90746,0.91525,0.91564,0.91218,0.90174,0.88751,0.86554,0.84007,0.80957,0.77594,0.73619,0.6939,0.64634,0.59703,0.54566,0.49079,0.43118,0.37201,0.31095,0.25194,0.19095,0.13458,0.07944,0.03308,0.02249,0.01728,0.00864,0,0,0,0,0,0,0,0,0,0,0,0,0,0,0,0,0,0,0,0,0,0,0,0,0,0]
new object=loadshape.gso_36.2120_-79.7183_25_135 npts=96 interval=0.25 mult=[0,0,0,0,0,0,0,0,0,0,0,0,0,0,0,0,0,0,0,0,0,0,0,0,0,0,0,0,0,0,0,0.12676,0.26393,0.34782,0.44523,0.50909,0.57412,0.62492,0.67491,0.71391,0.74474,0.7682,0.78863,0.80929,0.82667,0.83271,0.83509,0.8305,0.82223,0.80787,0.78998,0.76526,0.73737,0.70404,0.66797,0.62732,0.58462,0.53651,0.48837,0.43482,0.3813,0.32344,0.26714,0.20905,0.15489,0.10077,0.05466,0.02209,0.01811,0.00905,0,0,0,0,0,0,0,0,0,0,0,0,0,0,0,0,0,0,0,0,0,0,0,0,0,0]
new object=loadshape.gso_36.2120_-79.7183_15_90 npts=96 interval=0.25 mult=[0,0,0,0,0,0,0,0,0,0,0,0,0,0,0,0,0,0,0,0,0,0,0,0,0,0,0,0,0,0,0,0.08155,0.16877,0.22793,0.29651,0.34356,0.39181,0.43057,0.46866,0.49877,0.52492,0.54374,0.55993,0.57542,0.58808,0.59237,0.59352,0.58912,0.58156,0.5691,0.5536,0.53276,0.5092,0.48122,0.45091,0.41723,0.38179,0.34221,0.29935,0.25624,0.21319,0.16743,0.12305,0.07909,0.03858,0.03244,0.0291,0.0215,0.01868,0.00934,0,0,0,0,0,0,0,0,0,0,0,0,0,0,0,0,0,0,0,0,0,0,0,0,0,0]
new object=loadshape.gso_36.1751_-79.7183_15_270 npts=96 interval=0.25 mult=[0,0,0,0,0,0,0,0,0,0,0,0,0,0,0,0,0,0,0,0,0,0,0,0,0,0,0,0,0,0,0.0059,0.01671,0.02478,0.02858,0.03246,0.0371,0.0789,0.12227,0.16786,0.21268,0.26052,0.30287,0.34449,0.38254,0.41904,0.45231,0.48337,0.51024,0.53448,0.55325,0.56904,0.58076,0.58935,0.59218,0.59186,0.58577,0.57668,0.56397,0.54679,0.52216,0.49535,0.46244,0.42823,0.38472,0.34141,0.28633,0.23407,0.16364,0.08401,0.00934,0,0,0,0,0,0,0,0,0,0,0,0,0,0,0,0,0,0,0,0,0,0,0,0,0,0]
new object=loadshape.gso_36.2120_-79.7183_25_225 npts=96 interval=0.25 mult=[0,0,0,0,0,0,0,0,0,0,0,0,0,0,0,0,0,0,0,0,0,0,0,0,0,0,0,0,0,0,0,0.01668,0.02313,0.05372,0.10419,0.15546,0.21246,0.26854,0.32715,0.38258,0.43792,0.48722,0.53518,0.58371,0.63093,0.67041,0.70732,0.73857,0.76672,0.78927,0.80837,0.82038,0.82872,0.83066,0.82893,0.82075,0.80911,0.78921,0.7723,0.74109,0.70735,0.66309,0.61735,0.56009,0.50301,0.42855,0.35708,0.2556,0.12963,0.00905,0,0,0,0,0,0,0,0,0,0,0,0,0,0,0,0,0,0,0,0,0,0,0,0,0,0]
new object=loadshape.gso_36.2120_-79.7183_35_225 npts=96 interval=0.25 mult=[0,0,0,0,0,0,0,0,0,0,0,0,0,0,0,0,0,0,0,0,0,0,0,0,0,0,0,0,0,0,0,0.01592,0.02351,0.03264,0.0813,0.1337,0.19253,0.25163,0.31384,0.37359,0.43365,0.4881,0.54153,0.59589,0.6493,0.69507,0.73848,0.77627,0.81107,0.84021,0.86594,0.8843,0.89892,0.90684,0.91093,0.90803,0.90141,0.88579,0.87481,0.84637,0.81494,0.77138,0.72578,0.6661,0.60589,0.52366,0.44338,0.32357,0.16478,0.00864,0,0,0,0,0,0,0,0,0,0,0,0,0,0,0,0,0,0,0,0,0,0,0,0,0,0]
new object=loadshape.gso_36.2120_-79.7183_45_90 npts=96 interval=0.25 mult=[0,0,0,0,0,0,0,0,0,0,0,0,0,0,0,0,0,0,0,0,0,0,0,0,0,0,0,0,0,0,0,0.17308,0.34676,0.43211,0.52589,0.5734,0.61782,0.64351,0.66577,0.67508,0.67541,0.66807,0.65724,0.64535,0.62961,0.6045,0.57607,0.54223,0.50551,0.46458,0.42128,0.3741,0.32528,0.27378,0.22131,0.16794,0.11445,0.0656,0.05799,0.0566,0.05524,0.05221,0.04916,0.04556,0.04198,0.03692,0.03191,0.02272,0.01622,0.00811,0,0,0,0,0,0,0,0,0,0,0,0,0,0,0,0,0,0,0,0,0,0,0,0,0,0]
new object=loadshape.gso_36.2489_-79.7183_15_180 npts=96 interval=0.25 mult=[0,0,0,0,0,0,0,0,0,0,0,0,0,0,0,0,0,0,0,0,0,0,0,0,0,0,0,0,0,0,0,0.05687,0.1255,0.18664,0.26105,0.31875,0.38015,0.43366,0.48808,0.53501,0.57807,0.61845,0.65693,0.68914,0.7187,0.74116,0.76046,0.77398,0.78404,0.7882,0.7888,0.7824,0.77251,0.75689,0.73801,0.71278,0.68473,0.65045,0.61727,0.57437,0.5302,0.48011,0.43005,0.37247,0.31701,0.25341,0.19544,0.12611,0.06053,0.00934,0,0,0,0,0,0,0,0,0,0,0,0,0,0,0,0,0,0,0,0,0,0,0,0,0,0]
new object=loadshape.gso_36.2120_-79.7183_35_270 npts=96 interval=0.25 mult=[0,0,0,0,0,0,0,0,0,0,0,0,0,0,0,0,0,0,0,0,0,0,0,0,0,0,0,0,0,0,0,0.01592,0.02351,0.03118,0.03667,0.03918,0.04181,0.04395,0.04614,0.04746,0.05462,0.10451,0.15548,0.20611,0.25692,0.30535,0.35252,0.3966,0.43873,0.47722,0.51323,0.54421,0.5722,0.595,0.61453,0.62873,0.6395,0.64275,0.64668,0.639,0.62796,0.6061,0.58132,0.54386,0.50432,0.44448,0.38399,0.28603,0.1495,0.00864,0,0,0,0,0,0,0,0,0,0,0,0,0,0,0,0,0,0,0,0,0,0,0,0,0,0]
new object=loadshape.gso_36.2120_-79.7183_15_180 npts=96 interval=0.25 mult=[0,0,0,0,0,0,0,0,0,0,0,0,0,0,0,0,0,0,0,0,0,0,0,0,0,0,0,0,0,0,0,0.05868,0.13024,0.1902,0.26258,0.31971,0.38044,0.43397,0.48841,0.53593,0.5796,0.61645,0.65107,0.68601,0.7186,0.74167,0.76157,0.77511,0.78518,0.78934,0.78995,0.78354,0.77364,0.75777,0.73862,0.71392,0.68641,0.65206,0.61882,0.57613,0.53218,0.48091,0.4297,0.37208,0.31659,0.25297,0.19503,0.12606,0.06077,0.00934,0,0,0,0,0,0,0,0,0,0,0,0,0,0,0,0,0,0,0,0,0,0,0,0,0,0]
new object=loadshape.gso_36.1751_-79.7183_25_270 npts=96 interval=0.25 mult=[0,0,0,0,0,0,0,0,0,0,0,0,0,0,0,0,0,0,0,0,0,0,0,0,0,0,0,0,0,0,0.00572,0.0162,0.02539,0.02973,0.03414,0.03658,0.03909,0.04071,0.05882,0.10621,0.15906,0.2064,0.25365,0.29846,0.34229,0.38373,0.42343,0.45952,0.4933,0.52204,0.54798,0.57002,0.58899,0.60216,0.61208,0.61596,0.61656,0.61409,0.60576,0.58897,0.56937,0.54221,0.5129,0.47168,0.42949,0.37094,0.31354,0.2282,0.11844,0.00905,0,0,0,0,0,0,0,0,0,0,0,0,0,0,0,0,0,0,0,0,0,0,0,0,0,0]
new object=loadshape.gso_36.2120_-79.7183_45_225 npts=96 interval=0.25 mult=[0,0,0,0,0,0,0,0,0,0,0,0,0,0,0,0,0,0,0,0,0,0,0,0,0,0,0,0,0,0,0,0.01494,0.02369,0.03187,0.05688,0.10895,0.16798,0.22843,0.29249,0.35487,0.41804,0.4761,0.53347,0.5921,0.65016,0.7009,0.74955,0.79277,0.83319,0.86806,0.89963,0.92378,0.94421,0.95782,0.96755,0.96996,0.9685,0.95754,0.95261,0.92771,0.89943,0.85776,0.81355,0.75311,0.69144,0.60374,0.51693,0.38221,0.19521,0.00811,0,0,0,0,0,0,0,0,0,0,0,0,0,0,0,0,0,0,0,0,0,0,0,0,0,0]
new object=loadshape.gso_36.2489_-79.7183_25_135 npts=96 interval=0.25 mult=[0,0,0,0,0,0,0,0,0,0,0,0,0,0,0,0,0,0,0,0,0,0,0,0,0,0,0,0,0,0,0,0.12206,0.25347,0.34151,0.4435,0.50799,0.57386,0.62464,0.67461,0.71296,0.74311,0.77105,0.79608,0.81314,0.82679,0.83219,0.83395,0.82936,0.8211,0.80676,0.78888,0.76418,0.73632,0.70327,0.6675,0.62636,0.58319,0.53517,0.48713,0.43336,0.3796,0.32283,0.26761,0.20958,0.15548,0.10145,0.05547,0.0226,0.01811,0.00905,0,0,0,0,0,0,0,0,0,0,0,0,0,0,0,0,0,0,0,0,0,0,0,0,0,0]
new object=loadshape.gso_36.1751_-79.7183_25_180 npts=96 interval=0.25 mult=[0,0,0,0,0,0,0,0,0,0,0,0,0,0,0,0,0,0,0,0,0,0,0,0,0,0,0,0,0,0,0.00572,0.08121,0.17571,0.2482,0.32837,0.3938,0.463,0.52242,0.58277,0.63552,0.68257,0.72578,0.767,0.80093,0.83208,0.8569,0.87837,0.89327,0.90451,0.90789,0.90749,0.90147,0.89175,0.87474,0.85429,0.82681,0.79637,0.76529,0.72583,0.67814,0.62909,0.5737,0.51831,0.45358,0.39108,0.31763,0.25012,0.16717,0.08061,0.00905,0,0,0,0,0,0,0,0,0,0,0,0,0,0,0,0,0,0,0,0,0,0,0,0,0,0]
new object=loadshape.gso_36.1751_-79.7183_35_225 npts=96 interval=0.25 mult=[0,0,0,0,0,0,0,0,0,0,0,0,0,0,0,0,0,0,0,0,0,0,0,0,0,0,0,0,0,0,0.00546,0.01546,0.02578,0.03234,0.08053,0.13343,0.19276,0.25187,0.31409,0.37437,0.43496,0.49163,0.54784,0.59947,0.64959,0.69537,0.73878,0.77692,0.8121,0.84029,0.86502,0.88439,0.90004,0.90818,0.91249,0.90896,0.90168,0.89493,0.87637,0.84705,0.81473,0.77243,0.72803,0.66788,0.60717,0.52431,0.44358,0.32389,0.16484,0.00864,0,0,0,0,0,0,0,0,0,0,0,0,0,0,0,0,0,0,0,0,0,0,0,0,0,0]
new object=loadshape.gso_36.1751_-79.7183_15_90 npts=96 interval=0.25 mult=[0,0,0,0,0,0,0,0,0,0,0,0,0,0,0,0,0,0,0,0,0,0,0,0,0,0,0,0,0,0,0.0059,0.08463,0.172,0.23216,0.29579,0.34332,0.39213,0.43092,0.46904,0.49973,0.52647,0.54783,0.56668,0.57908,0.58857,0.59287,0.59403,0.5899,0.5826,0.56936,0.55311,0.53301,0.51016,0.48243,0.45237,0.41819,0.38227,0.34108,0.30073,0.25677,0.21284,0.16794,0.12442,0.08037,0.03983,0.03292,0.02908,0.02147,0.01868,0.00934,0,0,0,0,0,0,0,0,0,0,0,0,0,0,0,0,0,0,0,0,0,0,0,0,0,0]
new object=loadshape.gso_36.2489_-79.7183_45_225 npts=96 interval=0.25 mult=[0,0,0,0,0,0,0,0,0,0,0,0,0,0,0,0,0,0,0,0,0,0,0,0,0,0,0,0,0,0,0,0.01494,0.02365,0.03136,0.05576,0.10828,0.1678,0.22825,0.29229,0.35417,0.41682,0.47749,0.53812,0.59488,0.65046,0.70062,0.74865,0.79184,0.83222,0.86706,0.8986,0.92273,0.94314,0.95693,0.96685,0.96859,0.96646,0.95549,0.95057,0.92547,0.89702,0.85668,0.81374,0.75326,0.69148,0.6036,0.51629,0.38145,0.19445,0.00811,0,0,0,0,0,0,0,0,0,0,0,0,0,0,0,0,0,0,0,0,0,0,0,0,0,0]
new object=loadshape.gso_36.1751_-79.7183_45_90 npts=96 interval=0.25 mult=[0,0,0,0,0,0,0,0,0,0,0,0,0,0,0,0,0,0,0,0,0,0,0,0,0,0,0,0,0,0,0.00512,0.18128,0.35101,0.44103,0.52525,0.57308,0.61806,0.64377,0.66605,0.67599,0.67695,0.67283,0.66502,0.64929,0.62998,0.60487,0.57645,0.54286,0.50634,0.46471,0.42077,0.37421,0.32593,0.27468,0.22247,0.16869,0.11482,0.05969,0.05875,0.0566,0.05444,0.05221,0.05001,0.04643,0.04287,0.03737,0.0319,0.02271,0.01622,0.00811,0,0,0,0,0,0,0,0,0,0,0,0,0,0,0,0,0,0,0,0,0,0,0,0,0,0]
new object=loadshape.gso_36.1751_-79.7183_25_225 npts=96 interval=0.25 mult=[0,0,0,0,0,0,0,0,0,0,0,0,0,0,0,0,0,0,0,0,0,0,0,0,0,0,0,0,0,0,0.00572,0.0162,0.02539,0.05392,0.10341,0.15521,0.21273,0.26882,0.32746,0.38342,0.4393,0.49082,0.5415,0.58729,0.63129,0.67078,0.7077,0.73929,0.7678,0.78942,0.80757,0.82053,0.82985,0.83202,0.83052,0.82173,0.80945,0.79638,0.77387,0.74177,0.70714,0.66407,0.61947,0.56181,0.50432,0.42925,0.35729,0.25588,0.1297,0.00905,0,0,0,0,0,0,0,0,0,0,0,0,0,0,0,0,0,0,0,0,0,0,0,0,0,0]
new object=loadshape.gso_36.2489_-79.7183_25_270 npts=96 interval=0.25 mult=[0,0,0,0,0,0,0,0,0,0,0,0,0,0,0,0,0,0,0,0,0,0,0,0,0,0,0,0,0,0,0,0.01668,0.02314,0.02974,0.03418,0.03661,0.03913,0.04075,0.05809,0.10459,0.15661,0.20428,0.2519,0.29743,0.34197,0.38292,0.4221,0.45795,0.49146,0.52087,0.54752,0.56881,0.58698,0.60014,0.61005,0.61393,0.61455,0.60857,0.60266,0.58648,0.56751,0.54042,0.51118,0.47031,0.42845,0.37045,0.31333,0.22767,0.11791,0.00905,0,0,0,0,0,0,0,0,0,0,0,0,0,0,0,0,0,0,0,0,0,0,0,0,0,0]
new object=loadshape.gso_36.1751_-79.7183_25_135 npts=96 interval=0.25 mult=[0,0,0,0,0,0,0,0,0,0,0,0,0,0,0,0,0,0,0,0,0,0,0,0,0,0,0,0,0,0,0.00572,0.13232,0.26773,0.35478,0.44452,0.50877,0.57438,0.6252,0.6752,0.71485,0.74637,0.77365,0.79804,0.81423,0.82703,0.83308,0.83547,0.83126,0.82336,0.80803,0.78919,0.76541,0.73842,0.7053,0.66946,0.62823,0.58498,0.53903,0.48977,0.43535,0.38094,0.32404,0.26868,0.2104,0.15611,0.10146,0.05483,0.02207,0.01811,0.00905,0,0,0,0,0,0,0,0,0,0,0,0,0,0,0,0,0,0,0,0,0,0,0,0,0,0]
new object=loadshape.gso_36.2489_-79.7183_35_90 npts=96 interval=0.25 mult=[0,0,0,0,0,0,0,0,0,0,0,0,0,0,0,0,0,0,0,0,0,0,0,0,0,0,0,0,0,0,0,0.14088,0.28348,0.36725,0.46003,0.50935,0.55715,0.58802,0.61631,0.63239,0.64085,0.64595,0.64764,0.64194,0.63274,0.61643,0.5968,0.5721,0.54435,0.51203,0.47706,0.4376,0.39608,0.35153,0.30553,0.25705,0.20791,0.15712,0.10122,0.05145,0.0502,0.04852,0.04689,0.04392,0.04099,0.03658,0.03222,0.02299,0.01728,0.00864,0,0,0,0,0,0,0,0,0,0,0,0,0,0,0,0,0,0,0,0,0,0,0,0,0,0]
new object=loadshape.gso_36.2489_-79.7183_35_135 npts=96 interval=0.25 mult=[0,0,0,0,0,0,0,0,0,0,0,0,0,0,0,0,0,0,0,0,0,0,0,0,0,0,0,0,0,0,0,0.15536,0.32062,0.42403,0.54236,0.61251,0.68316,0.73508,0.78557,0.82235,0.84842,0.87291,0.89413,0.90648,0.91513,0.91485,0.91076,0.89991,0.88529,0.86437,0.8399,0.80846,0.77394,0.73426,0.69205,0.64458,0.59536,0.54155,0.48828,0.42932,0.3708,0.30986,0.25099,0.19024,0.13405,0.0795,0.0338,0.02299,0.01728,0.00864,0,0,0,0,0,0,0,0,0,0,0,0,0,0,0,0,0,0,0,0,0,0,0,0,0,0]
new object=loadshape.gso_36.2489_-79.7183_25_90 npts=96 interval=0.25 mult=[0,0,0,0,0,0,0,0,0,0,0,0,0,0,0,0,0,0,0,0,0,0,0,0,0,0,0,0,0,0,0,0.11139,0.22611,0.29967,0.38284,0.43199,0.48102,0.51629,0.5499,0.573,0.59017,0.60382,0.61446,0.61822,0.61872,0.61231,0.60262,0.58783,0.56989,0.54715,0.52153,0.49093,0.45792,0.42127,0.38271,0.34082,0.29771,0.25192,0.20193,0.15417,0.10717,0.0606,0.04375,0.04132,0.03894,0.03511,0.03132,0.0226,0.01811,0.00905,0,0,0,0,0,0,0,0,0,0,0,0,0,0,0,0,0,0,0,0,0,0,0,0,0,0]
new object=loadshape.gso_36.2489_-79.7183_15_135 npts=96 interval=0.25 mult=[0,0,0,0,0,0,0,0,0,0,0,0,0,0,0,0,0,0,0,0,0,0,0,0,0,0,0,0,0,0,0,0.08531,0.17912,0.24932,0.33207,0.3891,0.44835,0.49658,0.54466,0.58353,0.61704,0.64769,0.67589,0.69724,0.71556,0.72653,0.73416,0.736,0.73438,0.72706,0.71632,0.69912,0.67874,0.65327,0.62499,0.59135,0.55548,0.51462,0.47305,0.426,0.37852,0.32752,0.27749,0.22379,0.17328,0.12123,0.07621,0.03268,0.01868,0.00934,0,0,0,0,0,0,0,0,0,0,0,0,0,0,0,0,0,0,0,0,0,0,0,0,0,0]
new object=loadshape.gso_36.2489_-79.7183_45_135 npts=96 interval=0.25 mult=[0,0,0,0,0,0,0,0,0,0,0,0,0,0,0,0,0,0,0,0,0,0,0,0,0,0,0,0,0,0,0,0.18422,0.37854,0.49438,0.62565,0.69947,0.77292,0.82454,0.87415,0.90835,0.92977,0.95018,0.96706,0.97441,0.97789,0.97201,0.96223,0.9455,0.92501,0.89815,0.86785,0.83059,0.79044,0.7453,0.69788,0.64547,0.59162,0.53354,0.47647,0.414,0.35239,0.28901,0.22815,0.16637,0.10964,0.05605,0.03289,0.02318,0.01622,0.00811,0,0,0,0,0,0,0,0,0,0,0,0,0,0,0,0,0,0,0,0,0,0,0,0,0,0]
new object=loadshape.gso_36.2489_-79.7183_15_90 npts=96 interval=0.25 mult=[0,0,0,0,0,0,0,0,0,0,0,0,0,0,0,0,0,0,0,0,0,0,0,0,0,0,0,0,0,0,0,0.07877,0.16236,0.22369,0.29492,0.34255,0.39149,0.43023,0.46829,0.49782,0.52338,0.54528,0.56467,0.57787,0.58814,0.59187,0.59248,0.58808,0.58053,0.56807,0.55259,0.53177,0.50824,0.48057,0.45058,0.41648,0.38065,0.34115,0.29839,0.25502,0.21168,0.16692,0.12354,0.07967,0.03927,0.03348,0.03022,0.02203,0.01868,0.00934,0,0,0,0,0,0,0,0,0,0,0,0,0,0,0,0,0,0,0,0,0,0,0,0,0,0]
new object=loadshape.gso_36.2489_-79.7183_45_270 npts=96 interval=0.25 mult=[0,0,0,0,0,0,0,0,0,0,0,0,0,0,0,0,0,0,0,0,0,0,0,0,0,0,0,0,0,0,0,0.01494,0.02365,0.03136,0.03707,0.04073,0.04446,0.04721,0.04998,0.05144,0.05847,0.06078,0.06301,0.11154,0.16671,0.2203,0.27313,0.32406,0.37347,0.41982,0.46403,0.50369,0.54057,0.57276,0.60175,0.62468,0.64408,0.65635,0.66977,0.67019,0.66679,0.65306,0.63568,0.60261,0.56635,0.50612,0.44328,0.3353,0.17568,0.00811,0,0,0,0,0,0,0,0,0,0,0,0,0,0,0,0,0,0,0,0,0,0,0,0,0,0]
new object=loadshape.gso_36.2489_-79.7183_15_270 npts=96 interval=0.25 mult=[0,0,0,0,0,0,0,0,0,0,0,0,0,0,0,0,0,0,0,0,0,0,0,0,0,0,0,0,0,0,0,0.0172,0.02258,0.02862,0.03251,0.03653,0.07826,0.12156,0.16709,0.21095,0.25786,0.3006,0.34263,0.38141,0.41864,0.45139,0.48193,0.50854,0.5325,0.55198,0.56851,0.57946,0.58728,0.59011,0.5898,0.58374,0.57469,0.55957,0.5438,0.51978,0.4936,0.46077,0.42666,0.38347,0.34045,0.28597,0.23412,0.16334,0.08361,0.00934,0,0,0,0,0,0,0,0,0,0,0,0,0,0,0,0,0,0,0,0,0,0,0,0,0,0]
new object=loadshape.gso_36.1751_-79.7183_55_180 npts=96 interval=0.25 mult=[0,0,0,0,0,0,0,0,0,0,0,0,0,0,0,0,0,0,0,0,0,0,0,0,0,0,0,0,0,0,0.00472,0.12787,0.26998,0.36561,0.46691,0.5441,0.62477,0.69134,0.75876,0.81625,0.86418,0.91011,0.9541,0.98981,1.0228,1.04861,1.07112,1.0865,1.09829,1.1015,1.10101,1.09442,1.08419,1.06608,1.04457,1.0153,0.9831,0.9539,0.91168,0.85991,0.80676,0.74554,0.68424,0.61046,0.53873,0.45057,0.36797,0.25811,0.1249,0.00747,0,0,0,0,0,0,0,0,0,0,0,0,0,0,0,0,0,0,0,0,0,0,0,0,0,0]
new object=loadshape.gso_36.2489_-79.7183_35_225 npts=96 interval=0.25 mult=[0,0,0,0,0,0,0,0,0,0,0,0,0,0,0,0,0,0,0,0,0,0,0,0,0,0,0,0,0,0,0,0.01592,0.02349,0.03194,0.08009,0.13296,0.19231,0.25139,0.31358,0.37282,0.43233,0.48948,0.54619,0.59861,0.64953,0.69471,0.73751,0.77527,0.81003,0.83915,0.86485,0.88319,0.8978,0.90592,0.91022,0.90669,0.89942,0.88382,0.87285,0.84421,0.81258,0.77034,0.726,0.66631,0.60602,0.52366,0.44299,0.32301,0.16413,0.00864,0,0,0,0,0,0,0,0,0,0,0,0,0,0,0,0,0,0,0,0,0,0,0,0,0,0]
new object=loadshape.gso_36.2489_-79.7183_45_90 npts=96 interval=0.25 mult=[0,0,0,0,0,0,0,0,0,0,0,0,0,0,0,0,0,0,0,0,0,0,0,0,0,0,0,0,0,0,0,0.16636,0.33276,0.42437,0.52416,0.5723,0.61758,0.64325,0.66549,0.67418,0.67387,0.67039,0.66318,0.64828,0.62977,0.60411,0.57518,0.54137,0.50469,0.46379,0.42054,0.37339,0.32462,0.27348,0.22138,0.16771,0.11396,0.06557,0.05797,0.0562,0.05444,0.05221,0.05,0.04643,0.04288,0.03785,0.03289,0.02318,0.01622,0.00811,0,0,0,0,0,0,0,0,0,0,0,0,0,0,0,0,0,0,0,0,0,0,0,0,0,0]
new object=loadshape.res_kw_278_pu npts=96 interval=0.25 mult=[0.0748817,0.0748861,0.0754203,0.0756448,0.0795549,0.0798044,0.0799992,0.0801579,0.0926046,0.0953625,0.0938781,0.0919856,0.0951243,0.0938719,0.0931263,0.0926035,0.0937473,0.095397,0.0956085,0.0971784,0.129149,0.13578,0.136898,0.134957,0.133693,0.130553,0.138081,0.138393,0.148589,0.154647,0.154894,0.155018,0.193682,0.187595,0.185144,0.184962,0.274556,0.351156,0.226661,0.226015,0.227919,0.226881,0.226907,0.226445,0.217321,0.217906,0.208436,0.207809,0.213243,0.213008,0.211906,0.210462,0.183765,0.182012,0.18954,0.188269,0.178128,0.177212,0.176651,0.176043,0.1994,0.199679,0.199701,0.199932,0.223892,0.235384,0.23577,0.22512,0.190813,0.208262,0.208968,0.210891,0.168396,0.207676,0.176177,0.232752,0.304987,0.662354,0.66267,0.663022,0.644453,0.645318,0.166241,0.167286,0.133546,0.134239,0.121324,0.12166,0.100899,0.101219,0.101594,0.0908882,0.0840337,0.0844427,0.0847737,0.0850731] qmult=[0.162211,0.16222,0.163308,0.163765,0.169869,0.170377,0.170774,0.171097,0.198588,0.204204,0.201181,0.197327,0.202446,0.199896,0.198378,0.197313,0.197443,0.200803,0.201234,0.204431,0.264073,0.279666,0.281944,0.278972,0.291011,0.282528,0.291776,0.292411,0.336948,0.351376,0.351878,0.352132,0.472995,0.458508,0.453517,0.453146,0.576275,0.571459,0.57063,0.569313,0.581919,0.579804,0.579857,0.578916,0.556954,0.558147,0.546287,0.54501,0.56371,0.563232,0.560987,0.558047,0.466005,0.462435,0.471112,0.468523,0.426473,0.424609,0.423467,0.422229,0.432146,0.432713,0.432759,0.433229,0.427726,0.442495,0.443281,0.430227,0.347066,0.37027,0.371707,0.375623,0.284209,0.493696,0.319976,0.30503,0.271607,0.584133,0.584776,0.585493,0.554644,0.556406,0.248722,0.250851,0.222761,0.224171,0.212884,0.213569,0.18533,0.185982,0.186746,0.17822,0.175741,0.176573,0.177248,0.177857]
new object=loadshape.res_kw_1246_pu npts=96 interval=0.25 mult=[0.133487,0.132662,0.118509,0.117963,0.114318,0.114203,0.114116,0.114049,0.113522,0.113893,0.114275,0.114661,0.0912457,0.095787,0.0974042,0.0999215,0.107323,0.104791,0.105839,0.10678,0.113085,0.114008,0.114924,0.480068,0.701023,0.767873,0.71057,0.677802,0.72136,0.721332,0.721313,0.721198,0.357277,0.174258,0.173189,0.17193,0.169386,0.167848,0.167345,0.166554,0.165171,0.164898,0.164702,0.164524,0.164611,0.163749,0.162686,0.161994,0.184753,0.186444,0.183342,0.181218,0.179915,0.178358,0.177058,0.175923,0.173594,0.172447,0.17125,0.170505,0.175555,0.175267,0.175081,0.175029,0.147168,0.147853,0.148524,0.149255,0.165473,0.189123,0.219086,0.219987,0.242277,0.24254,0.242309,0.242902,0.2475,0.247903,0.247641,0.248302,0.239104,0.243448,0.245008,0.246524,0.226513,0.222932,0.222905,0.222911,0.201574,0.201769,0.201905,0.202026,0.163087,0.163404,0.143941,0.14418] qmult=[0.254813,0.253513,0.227016,0.226157,0.219444,0.219264,0.219126,0.21902,0.217659,0.218244,0.218846,0.219453,0.182261,0.190303,0.192851,0.196817,0.21472,0.209844,0.211495,0.212976,0.217455,0.218909,0.220352,0.388186,0.51524,0.769232,0.612593,0.486632,0.544461,0.544417,0.544387,0.544206,0.379559,0.294937,0.293252,0.29127,0.287886,0.285463,0.284671,0.283425,0.282438,0.282007,0.281698,0.281417,0.285231,0.283874,0.282199,0.281109,0.320909,0.323573,0.318686,0.315339,0.312926,0.310472,0.308424,0.306636,0.300381,0.298573,0.296688,0.295514,0.303979,0.303526,0.303233,0.303151,0.264002,0.26508,0.266137,0.267289,0.285567,0.285118,0.354541,0.35596,0.366715,0.367129,0.366764,0.367698,0.355559,0.356195,0.355781,0.356823,0.346995,0.354726,0.357184,0.359573,0.349879,0.343349,0.343306,0.343315,0.31421,0.314516,0.314731,0.314921,0.292284,0.292783,0.264538,0.264915]
new object=loadshape.res_kw_324_pu npts=96 interval=0.25 mult=[0.148276,0.24323,0.216521,0.125652,0.123943,0.123918,0.123937,0.123975,0.124134,0.124555,0.124993,0.12543,0.12516,0.125506,0.12584,0.126167,0.0956887,0.0955492,0.0947066,0.098843,0.10254,0.104501,0.106207,0.107719,0.13446,0.169949,0.394801,0.368849,0.325327,0.355325,0.414014,0.471103,0.473402,0.472104,0.471305,0.47066,0.435269,0.434896,0.340522,0.253678,0.16426,0.16449,0.164503,0.164445,0.163066,0.162313,0.193485,0.280475,0.30737,0.281158,0.302733,0.301622,0.237617,0.181851,0.179833,0.178158,0.177291,0.175765,0.252504,0.289834,0.296188,0.284499,0.186381,0.186135,0.195997,0.188357,0.188177,0.224783,0.216869,0.224442,0.334952,0.336007,0.256644,0.249459,0.249709,0.249935,0.351846,0.457696,0.321811,0.262903,0.25318,0.254324,0.255606,0.366865,0.348017,0.34827,0.244595,0.232242,0.173219,0.272949,0.329175,0.235531,0.163683,0.132213,0.133234,0.22] qmult=[0.319769,0.523676,0.466214,0.270941,0.269992,0.269933,0.269978,0.270065,0.270253,0.271235,0.272256,0.273275,0.273534,0.274342,0.27512,0.275881,0.207864,0.207539,0.205213,0.214855,0.220257,0.224828,0.228804,0.23233,0.251529,0.258592,0.519404,0.463757,0.307063,0.330386,0.456364,0.578925,0.584932,0.581906,0.580043,0.57854,0.552459,0.55159,0.394713,0.27737,0.277789,0.278325,0.278356,0.278221,0.27968,0.277925,0.275483,0.271717,0.340224,0.353415,0.589719,0.587492,0.44658,0.326406,0.321701,0.317796,0.311099,0.307541,0.472118,0.552094,0.561875,0.539237,0.328463,0.327888,0.327118,0.308102,0.307681,0.337606,0.321485,0.337868,0.575395,0.577855,0.347397,0.332001,0.332584,0.333112,0.472828,0.62338,0.452234,0.325798,0.319518,0.322183,0.325172,0.564403,0.574635,0.575223,0.352598,0.326103,0.291919,0.443031,0.563855,0.362768,0.304906,0.276129,0.27851,0.464997]
new object=loadshape.res_kw_1205_pu npts=96 interval=0.25 mult=[0.376336,0.55258,0.467791,0.253052,0.225596,0.226644,0.227126,0.22738,0.20193,0.202672,0.205464,0.20765,0.201567,0.203101,0.20449,0.205732,0.205968,0.206991,0.207942,0.208787,0.21023,0.211299,0.21248,0.213669,0.24148,0.441461,0.51669,0.514866,0.563047,0.589778,0.576768,0.384102,0.298759,0.270811,0.284016,0.421979,0.553581,0.510219,0.275639,0.471329,0.582201,0.582462,0.579503,0.543937,0.568722,0.605819,0.327793,0.434331,0.602987,0.609502,0.486219,0.332061,0.325319,0.56574,0.588628,0.58737,0.288465,0.270796,0.26952,0.268315,0.313614,0.535469,0.586241,0.588171,0.602505,0.603527,0.606645,0.605763,0.64549,0.64791,0.646145,0.650113,0.686511,0.623969,0.565741,0.569409,0.562957,0.623558,0.620754,0.618915,0.611412,0.673649,0.675232,0.676863,0.64573,0.646633,0.695511,0.638896,0.573898,0.577195,0.578051,0.578867,0.539387,0.54036,0.520802,0.521661] qmult=[0.499529,0.668816,0.544032,0.326338,0.324094,0.32533,0.325899,0.326198,0.296537,0.297412,0.300704,0.303282,0.291385,0.293194,0.294833,0.296296,0.297196,0.298403,0.299523,0.300521,0.301478,0.302739,0.304131,0.305534,0.330915,0.559332,0.645364,0.643214,0.691394,0.690266,0.653262,0.433095,0.338227,0.33792,0.374525,0.532008,0.683806,0.634217,0.366136,0.589475,0.710889,0.711196,0.707707,0.673302,0.705349,0.743122,0.425323,0.546882,0.744134,0.752802,0.611903,0.435721,0.427327,0.70065,0.726757,0.725273,0.384475,0.364243,0.362739,0.361318,0.410319,0.663565,0.721723,0.723999,0.734033,0.735237,0.738915,0.737874,0.768037,0.77089,0.768809,0.773489,0.787156,0.73469,0.686327,0.690652,0.674495,0.717358,0.714052,0.711883,0.705918,0.753693,0.75556,0.757484,0.745684,0.746749,0.786952,0.737626,0.683156,0.687044,0.688053,0.689016,0.673258,0.674405,0.653056,0.654069]
new object=loadshape.res_kw_454_pu npts=96 interval=0.25 mult=[0.0796575,0.0771796,0.0766524,0.0764652,0.0752261,0.0753143,0.0753591,0.0753709,0.0751091,0.0754816,0.0758506,0.07622,0.0745337,0.128161,0.196422,0.124586,0.078714,0.081984,0.08041,0.080713,0.0799426,0.0774572,0.0811253,0.0816858,0.118388,0.207355,0.155245,0.227655,0.364366,0.14924,0.0985195,0.0901943,0.110651,0.163883,0.221289,0.171094,0.0928498,0.0992559,0.097304,0.0955351,0.205689,0.237952,0.112635,0.0824929,0.0836382,0.0836384,0.0829483,0.107696,0.202882,0.202047,0.0899976,0.0801479,0.0796369,0.0789379,0.123013,0.198986,0.19826,0.095307,0.0666572,0.126539,0.320538,0.209345,0.0716963,0.187942,0.0973088,0.0698688,0.0702308,0.204924,0.244239,0.228723,0.179612,0.0814102,0.106989,0.145685,0.129509,0.218511,0.2461,0.241849,0.241378,0.178005,0.140706,0.239845,0.214937,0.12161,0.116238,0.128297,0.128283,0.183149,0.241373,0.209829,0.117891,0.221881,0.0979374,0.0711127,0.0708417,0.0717956] qmult=[0.199811,0.194218,0.193029,0.192606,0.190866,0.191066,0.191166,0.191193,0.190827,0.191668,0.192501,0.193335,0.187685,0.300754,0.444769,0.293359,0.199299,0.207259,0.20193,0.202614,0.200371,0.194181,0.202201,0.203466,0.276576,0.464293,0.354474,0.246172,0.468258,0.275645,0.230277,0.216486,0.264534,0.376922,0.501635,0.395471,0.231616,0.240347,0.235942,0.23195,0.195997,0.199448,0.195384,0.197158,0.200994,0.200994,0.199437,0.251492,0.453655,0.451769,0.215477,0.194661,0.193024,0.191446,0.284276,0.444377,0.441582,0.224411,0.166917,0.292957,0.438184,0.399433,0.17722,0.42242,0.229739,0.171961,0.172778,0.19216,0.203756,0.426114,0.400183,0.193368,0.244881,0.307116,0.283448,0.470713,0.52064,0.510465,0.509401,0.375806,0.298477,0.507733,0.455434,0.258894,0.255794,0.272318,0.272286,0.387878,0.514186,0.44771,0.261937,0.489447,0.234361,0.178453,0.177406,0.179559]
new object=loadshape.res_kw_664_pu npts=96 interval=0.25 mult=[0.0756291,0.0750211,0.0747443,0.0745211,0.0743498,0.0747713,0.0751168,0.0755965,0.0760536,0.0766251,0.0771815,0.0777118,0.15174,0.165432,0.0787696,0.0791602,0.0790475,0.0793873,0.0797254,0.0800476,0.0808186,0.0813729,0.0819684,0.0825637,0.114378,0.121011,0.117446,0.11364,0.164971,0.162584,0.160438,0.105027,0.1019,0.0999323,0.0979834,0.096195,0.093393,0.0919177,0.0905736,0.089369,0.0886027,0.0879694,0.0874184,0.0868857,0.200154,0.21636,0.24289,0.238283,0.172454,0.171744,0.171236,0.143663,0.213234,0.270974,0.553696,0.576248,0.599731,0.705452,0.655426,0.194559,0.141317,0.141474,0.255735,0.27287,0.283217,0.190344,0.225095,0.287598,0.244717,0.171036,0.17166,0.182842,0.319204,0.319577,0.224893,0.270549,0.337006,0.322292,0.322639,0.323016,0.277203,0.191022,0.274355,0.323699,0.276171,0.271172,0.170423,0.144433,0.130562,0.132327,0.133768,0.135087,0.124999,0.207673,0.136797,0.0786367] qmult=[0.158607,0.157564,0.157089,0.156707,0.156927,0.157649,0.158242,0.159064,0.159764,0.160744,0.161698,0.162607,0.28552,0.308255,0.164536,0.165206,0.165526,0.166109,0.166689,0.167241,0.167965,0.168915,0.169936,0.170957,0.224284,0.235658,0.229544,0.223018,0.29688,0.292787,0.289107,0.207621,0.204936,0.201561,0.198219,0.195153,0.192542,0.190012,0.187707,0.185641,0.184043,0.182958,0.182013,0.181099,0.368704,0.395546,0.504315,0.498425,0.392495,0.391278,0.390406,0.27985,0.38488,0.480648,0.504867,0.473828,0.510286,0.685615,0.60262,0.282902,0.264092,0.26436,0.45387,0.482301,0.495096,0.341931,0.399576,0.503284,0.421129,0.298091,0.299161,0.31773,0.523545,0.524185,0.367154,0.346537,0.51208,0.511786,0.512381,0.513028,0.439865,0.29827,0.436525,0.518407,0.454772,0.445187,0.278226,0.235231,0.215571,0.218598,0.221068,0.223331,0.238523,0.375749,0.258261,0.161854]
new object=loadshape.res_kw_35_pu npts=96 interval=0.25 mult=[0.130869,0.125206,0.123084,0.121793,0.120997,0.120906,0.120799,0.120718,0.120752,0.121149,0.12155,0.121937,0.100766,0.102512,0.104456,0.107227,0.108241,0.109428,0.110384,0.111177,0.112355,0.113392,0.114404,0.115458,0.146386,0.14682,0.146818,0.147877,0.158693,0.15837,0.158039,0.157236,0.155123,0.153902,0.15235,0.110509,0.108899,0.107718,0.106433,0.105233,0.104331,0.103854,0.103489,0.103217,0.102538,0.101552,0.10036,0.099148,0.118948,0.118002,0.114567,0.112322,0.110641,0.108837,0.107184,0.105625,0.0844927,0.0842936,0.0845631,0.0843104,0.0841152,0.0841371,0.0843622,0.0845852,0.0866476,0.0873127,0.0883784,0.0898695,0.101852,0.114933,0.11685,0.11868,0.190362,0.180297,0.181024,0.181872,0.188341,0.188931,0.189526,0.190118,0.184373,0.185768,0.187238,0.188809,0.174286,0.174742,0.175115,0.17548,0.134195,0.136044,0.133513,0.13141,0.129775,0.129413,0.129454,0.129589] qmult=[0.306499,0.293843,0.2891,0.286215,0.284734,0.284531,0.284293,0.284111,0.283857,0.284743,0.285639,0.286505,0.239071,0.242974,0.247318,0.253511,0.256075,0.258726,0.260864,0.262636,0.264639,0.266956,0.269217,0.271574,0.303652,0.304621,0.304617,0.306985,0.320505,0.319784,0.319045,0.31725,0.311763,0.309034,0.305566,0.262589,0.261298,0.258657,0.255785,0.253104,0.250549,0.249483,0.248666,0.24806,0.246332,0.244128,0.241465,0.238756,0.283876,0.281761,0.274084,0.269068,0.264473,0.260441,0.256746,0.253263,0.205409,0.204964,0.205566,0.205002,0.204025,0.204074,0.204577,0.205075,0.209209,0.210695,0.213077,0.216409,0.241576,0.273296,0.277579,0.281669,0.335421,0.31044,0.312065,0.313959,0.308422,0.30974,0.31107,0.312392,0.309281,0.312398,0.315685,0.319195,0.315586,0.316603,0.317437,0.318254,0.31127,0.315403,0.309747,0.305047,0.303113,0.302305,0.302395,0.302698]
new object=loadshape.res_kw_843_pu npts=96 interval=0.25 mult=[0.194558,0.237321,0.235162,0.236685,0.234065,0.234324,0.180251,0.0976158,0.0970473,0.0973182,0.0975851,0.0978467,0.0972068,0.0974499,0.0976838,0.0979152,0.097714,0.0979392,0.09816,0.09838,0.0990449,0.0993499,0.231181,0.264101,0.28367,0.283654,0.152326,0.120013,0.153098,0.153178,0.12892,0.128858,0.300117,0.200863,0.166067,0.115167,0.110952,0.108359,0.106448,0.130912,0.128756,0.127483,0.126554,0.255474,0.393508,0.29365,0.28585,0.284804,0.177612,0.148275,0.1479,0.147539,0.147075,0.14641,0.145775,0.145164,0.142867,0.142173,0.141718,0.141513,0.146096,0.146203,0.228544,0.282907,0.295623,0.262256,0.164146,0.165036,0.184601,0.186096,0.187414,0.188719,0.321389,0.333225,0.33345,0.334395,0.33516,0.33589,0.336161,0.336627,0.329244,0.330491,0.226484,0.196295,0.189802,0.321637,0.215748,0.184992,0.150252,0.280392,0.170573,0.144058,0.117223,0.116782,0.11491,0.115792] qmult=[0.470954,0.551405,0.546793,0.550047,0.542984,0.543537,0.432391,0.262523,0.260649,0.261228,0.261798,0.262357,0.260484,0.261003,0.261502,0.261997,0.26174,0.262221,0.262693,0.263163,0.264272,0.264924,0.263539,0.263114,0.302861,0.302828,0.305287,0.30701,0.377033,0.377203,0.327176,0.327042,0.409784,0.41001,0.406429,0.302573,0.29518,0.289641,0.28556,0.335078,0.330651,0.32793,0.325947,0.590826,0.60387,0.602805,0.656601,0.654368,0.438093,0.377727,0.376924,0.376154,0.374913,0.373492,0.372137,0.37083,0.363285,0.361804,0.360831,0.360394,0.371782,0.372009,0.541275,0.653014,0.678609,0.611214,0.409607,0.411507,0.446744,0.449935,0.452752,0.455539,0.711531,0.734813,0.735292,0.737312,0.721937,0.723496,0.724075,0.72507,0.710905,0.71357,0.499867,0.43792,0.439086,0.710143,0.492489,0.429265,0.365646,0.633221,0.407494,0.353006,0.30905,0.308108,0.303481,0.305364]
new object=loadshape.res_kw_462_pu npts=96 interval=0.25 mult=[0.0703067,0.0719972,0.0714788,0.0713126,0.0704625,0.0683721,0.0683694,0.0683704,0.0685422,0.0687869,0.0690064,0.0692387,0.0693216,0.069517,0.0697118,0.0699066,0.0699447,0.0701207,0.0702942,0.0696663,0.0842546,0.0902153,0.0895199,0.0901344,0.0951389,0.0935287,0.106481,0.106311,0.114009,0.112764,0.108848,0.106951,0.0940599,0.0937231,0.093177,0.0768234,0.0751955,0.07393,0.0729805,0.071978,0.0714567,0.0704136,0.0706007,0.070069,0.0693514,0.0686252,0.0680037,0.0672844,0.0670573,0.0675191,0.0676556,0.067728,0.0680778,0.0680485,0.0683262,0.0687944,0.0691143,0.0693406,0.0695575,0.06975,0.070008,0.0701868,0.0704001,0.07062,0.0714895,0.0717964,0.0720812,0.0906805,0.0974544,0.12068,0.101007,0.124241,0.131097,0.129157,0.129333,0.129535,0.129981,0.130157,0.130342,0.13053,0.110412,0.112676,0.111996,0.090789,0.106612,0.107198,0.107563,0.107876,0.0996242,0.0994363,0.0690047,0.0692999,0.0687425,0.0695071,0.0697855,0.0700568] qmult=[0.228958,0.234204,0.232846,0.23241,0.230466,0.224171,0.224164,0.224166,0.224522,0.225164,0.225739,0.226348,0.226597,0.227109,0.227619,0.22813,0.228513,0.228974,0.229429,0.227783,0.265639,0.283127,0.281304,0.282915,0.290539,0.286931,0.317944,0.317498,0.337273,0.334009,0.323746,0.318774,0.289342,0.28846,0.287029,0.247499,0.244618,0.241301,0.238813,0.236185,0.234599,0.231865,0.232355,0.230962,0.228955,0.227052,0.225423,0.223538,0.223258,0.224468,0.224826,0.225015,0.225428,0.225351,0.226079,0.227306,0.227767,0.22836,0.228928,0.229433,0.229889,0.230357,0.230916,0.231493,0.233173,0.233977,0.234724,0.281531,0.294837,0.351523,0.304964,0.360857,0.363633,0.35773,0.358194,0.358722,0.346599,0.34706,0.347546,0.348036,0.297019,0.302953,0.300559,0.262186,0.299107,0.300641,0.3016,0.302418,0.282384,0.281892,0.223529,0.224303,0.223693,0.225697,0.226426,0.227137]
new object=loadshape.res_kw_4_pu npts=96 interval=0.25 mult=[0.102744,0.102821,0.256541,0.294977,0.291127,0.291315,0.28206,0.101345,0.101111,0.101339,0.101569,0.1018,0.10126,0.101618,0.101853,0.102048,0.10404,0.115545,0.27338,0.102398,0.102705,0.10295,0.103253,0.236873,0.300132,0.300707,0.162285,0.105439,0.115074,0.107066,0.192773,0.313159,0.177431,0.246332,0.337118,0.229455,0.231924,0.326153,0.207047,0.126678,0.125641,0.125327,0.188335,0.376436,0.17137,0.1238,0.123331,0.497711,0.63832,0.710229,0.768516,0.767792,0.952499,0.879745,0.446009,0.31004,0.309308,0.250242,0.118383,0.118059,0.120035,0.129493,0.110628,0.110986,0.115254,0.115525,0.176498,0.302371,0.31321,0.314791,0.315028,0.313161,0.320869,0.31965,0.336106,0.389538,0.477605,0.491028,0.491455,0.409673,0.347558,0.35201,0.353127,0.354288,0.343273,0.418124,0.476549,0.408869,0.342009,0.345336,0.327728,0.328689,0.307135,0.307101,0.307951,0.301827] qmult=[0.247845,0.247988,0.537003,0.611332,0.601856,0.602201,0.584805,0.245167,0.24427,0.244688,0.245111,0.245537,0.244196,0.244854,0.245285,0.245644,0.251492,0.270906,0.567534,0.246182,0.246384,0.246835,0.247392,0.498599,0.616841,0.617898,0.357732,0.251502,0.269585,0.254946,0.415643,0.641456,0.386699,0.516296,0.686915,0.484594,0.4904,0.667474,0.444342,0.293316,0.291398,0.29082,0.498383,0.929899,0.45705,0.289685,0.288824,0.493729,0.579088,0.588414,0.586692,0.58537,0.932406,0.921525,0.716378,0.642176,0.639369,0.528376,0.280578,0.279983,0.284144,0.302558,0.265824,0.266483,0.274227,0.274727,0.389338,0.626016,0.644247,0.647152,0.647589,0.644157,0.652691,0.65045,0.677777,0.654501,0.689708,0.708822,0.709607,0.689252,0.684029,0.693384,0.695438,0.697571,0.686314,0.695321,0.693851,0.693859,0.675824,0.68194,0.655989,0.657756,0.633849,0.633786,0.635349,0.623279]
new object=loadshape.res_kw_517_pu npts=96 interval=0.25 mult=[0.143706,0.274552,0.303099,0.167559,0.13914,0.144474,0.144935,0.144939,0.136895,0.131936,0.131961,0.132311,0.136506,0.136805,0.137077,0.137358,0.151838,0.152119,0.152409,0.152691,0.169504,0.16997,0.170525,0.171104,0.164028,0.16436,0.270764,0.355691,0.264464,0.157867,0.336089,0.335039,0.331685,0.330059,0.295958,0.218415,0.318255,0.302236,0.299859,0.29672,0.306271,0.306524,0.305853,0.304886,0.302788,0.300699,0.285201,0.238066,0.113811,0.113455,0.113149,0.277624,0.157023,0.114768,0.115502,0.116054,0.110071,0.146211,0.294395,0.234249,0.152886,0.169056,0.331567,0.338678,0.403071,0.409228,0.408899,0.40843,0.416018,0.412103,0.414094,0.415376,0.382672,0.383575,0.409008,0.410751,0.409175,0.409325,0.410387,0.411188,0.395951,0.397667,0.399389,0.375741,0.340232,0.341178,0.34207,0.342605,0.312698,0.152826,0.153013,0.136806,0.136286,0.136816,0.137121,0.137655] qmult=[0.189488,0.346285,0.380424,0.217458,0.182103,0.189393,0.189974,0.18998,0.181645,0.17483,0.17486,0.175302,0.17874,0.179118,0.179461,0.179815,0.191542,0.191897,0.192263,0.192618,0.205933,0.206521,0.207221,0.207951,0.202168,0.202588,0.323896,0.425999,0.329572,0.201433,0.411582,0.410258,0.406685,0.404634,0.363554,0.270155,0.392202,0.377608,0.37461,0.370651,0.37901,0.379329,0.378484,0.377265,0.376174,0.373539,0.358656,0.301956,0.153381,0.152932,0.152546,0.350238,0.204983,0.154239,0.155165,0.155861,0.14824,0.188188,0.366304,0.294035,0.184917,0.201015,0.396341,0.404851,0.457745,0.466072,0.465658,0.465067,0.469841,0.464341,0.466852,0.468469,0.437883,0.439022,0.458863,0.461062,0.451483,0.451673,0.453012,0.454022,0.441819,0.443983,0.446155,0.430519,0.407196,0.40839,0.409515,0.410188,0.382241,0.190114,0.190351,0.178957,0.179084,0.179751,0.180136,0.180809]
new object=loadshape.res_kw_670_pu npts=96 interval=0.25 mult=[0.14235,0.139533,0.136296,0.135574,0.13544,0.135668,0.135738,0.13578,0.137949,0.142892,0.143521,0.144089,0.142275,0.138441,0.208653,0.165538,0.139309,0.139614,0.223157,0.314827,0.160346,0.142899,0.143842,0.144836,0.154949,0.155498,0.233025,0.258328,0.253946,0.254212,0.265083,0.264352,0.262571,0.191284,0.163373,0.159884,0.309731,0.323416,0.280123,0.142123,0.127097,0.124991,0.123169,0.121609,0.119464,0.117398,0.127301,0.125152,0.192553,0.147675,0.121876,0.121069,0.207084,0.298669,0.170549,0.121588,0.12125,0.123803,0.133856,0.132303,0.143871,0.139,0.139045,0.139608,0.147394,0.148819,0.150749,0.152961,0.170423,0.155286,0.158449,0.253502,0.310336,0.175331,0.177086,0.178745,0.251159,0.277158,0.412193,0.476521,0.471528,0.375972,0.301638,0.235463,0.193274,0.194125,0.192808,0.17631,0.278342,0.330868,0.331648,0.162467,0.150382,0.151205,0.151954,0.152605] qmult=[0.288847,0.283919,0.277607,0.2762,0.276241,0.276686,0.276821,0.276904,0.280902,0.291293,0.29252,0.293626,0.290038,0.281808,0.285667,0.287042,0.283805,0.284398,0.438614,0.604982,0.322067,0.29027,0.29211,0.294047,0.303855,0.304925,0.312696,0.313208,0.310974,0.311492,0.320991,0.319566,0.316904,0.312172,0.306575,0.29977,0.57526,0.61103,0.531413,0.278591,0.261952,0.257845,0.254294,0.251251,0.246889,0.242863,0.250506,0.246314,0.244811,0.242748,0.241268,0.239696,0.396827,0.56437,0.329899,0.240143,0.238659,0.244389,0.252885,0.249857,0.25981,0.249558,0.249646,0.250745,0.258768,0.261545,0.26531,0.269621,0.28669,0.275984,0.282152,0.456363,0.545046,0.298362,0.301785,0.30502,0.300975,0.302844,0.521403,0.639113,0.636502,0.461997,0.326299,0.331534,0.320346,0.322006,0.319437,0.308608,0.501298,0.614367,0.615887,0.306573,0.298193,0.299798,0.301258,0.302527]
new object=loadshape.res_kw_917_pu npts=96 interval=0.25 mult=[0.507284,0.533859,0.520764,0.522272,0.352892,0.537902,0.661264,0.680555,0.754391,0.76666,0.77515,0.781332,0.611362,0.449649,0.458293,0.465646,0.471747,0.477997,0.483968,0.488622,0.492839,0.499195,0.505655,0.512245,0.505682,0.510517,0.487696,0.529327,0.539942,0.522332,0.527217,0.513826,0.491978,0.471136,0.451959,0.432917,0.419444,0.404801,0.392458,0.379133,0.542152,0.540381,0.489066,0.441937,0.519308,0.53393,0.487981,0.500427,0.408757,0.395307,0.387117,0.380598,0.373613,0.365473,0.354432,0.341339,0.31968,0.307868,0.292416,0.278769,0.271273,0.257175,0.253705,0.249335,0.241803,0.255199,0.265922,0.282692,0.329157,0.35564,0.374419,0.440623,0.542982,0.555238,0.508809,0.441852,0.462527,0.473443,0.483023,0.483841,0.454544,0.522956,0.540896,0.554582,0.556236,0.563553,0.551262,0.573307,0.565068,0.490178,0.564121,0.568238,0.547888,0.581057,0.587958,0.593625] qmult=[0.401637,0.401637,0.401637,0.375442,0.782237,0.598419,0.910364,0.889226,0.885749,0.904024,0.904024,0.885295,0.676262,0.346042,0.346042,0.346042,0.344973,0.344973,0.344973,0.344973,0.344973,0.344973,0.344973,0.344973,0.34711,0.34711,0.378362,0.378362,0.436476,0.436476,0.392862,0.349247,0.350316,0.350316,0.350316,0.350316,0.350316,0.350316,0.350316,0.350316,0.481806,0.481806,0.43762,0.43762,0.442597,0.466963,0.466963,0.466963,0.424754,0.400388,0.400388,0.400388,0.400707,0.400707,0.400707,0.400707,0.445692,0.445692,0.445692,0.445692,0.402367,0.454418,0.454418,0.454418,0.468376,0.468376,0.468376,0.468376,0.494155,0.494155,0.562335,0.562335,0.574094,0.645481,0.645481,0.716869,0.6802,0.6802,0.6802,0.6802,0.644599,0.644599,0.644599,0.644599,0.618646,0.618646,0.618646,0.618646,0.512544,0.512544,0.472788,0.472788,0.438523,0.438523,0.438523,0.438523]
new object=loadshape.res_kw_452_pu npts=96 interval=0.25 mult=[0.150453,0.144726,0.142239,0.140534,0.139455,0.139325,0.139155,0.13898,0.138961,0.139491,0.140114,0.140755,0.142019,0.142537,0.143081,0.143638,0.14822,0.148641,0.149133,0.149619,0.159115,0.160231,0.161461,0.162285,0.194751,0.19487,0.196124,0.196963,0.225101,0.225844,0.257174,0.409516,0.383556,0.346685,0.283911,0.25643,0.296847,0.293373,0.29017,0.2872,0.291724,0.289993,0.26436,0.287462,0.286802,0.438678,0.363248,0.327979,0.268588,0.274453,0.274237,0.274214,0.236822,0.23072,0.23091,0.231033,0.189863,0.19019,0.190216,0.190534,0.174341,0.17523,0.175916,0.17698,0.151304,0.152578,0.15397,0.155034,0.179521,0.181772,0.184248,0.186759,0.232015,0.233157,0.234537,0.235871,0.188915,0.190167,0.195989,0.228173,0.2218,0.224751,0.19539,0.198195,0.221072,0.215353,0.215848,0.216026,0.174239,0.175085,0.146737,0.147348,0.146375,0.147231,0.147994,0.148875] qmult=[0.175786,0.169497,0.166765,0.164893,0.163862,0.163719,0.163533,0.16334,0.163137,0.163718,0.164403,0.165107,0.166781,0.16735,0.167948,0.168559,0.175174,0.175636,0.176177,0.17671,0.189302,0.190527,0.191879,0.192784,0.221174,0.221305,0.222683,0.223603,0.257803,0.258619,0.271751,0.529222,0.410618,0.342922,0.322459,0.307118,0.365367,0.361552,0.358034,0.354772,0.362176,0.360275,0.346963,0.357496,0.348095,0.605054,0.418232,0.352295,0.336481,0.343653,0.343416,0.34339,0.291336,0.283903,0.284111,0.284247,0.246156,0.246515,0.246544,0.246893,0.223814,0.224791,0.225544,0.226713,0.189706,0.191105,0.192634,0.193803,0.192638,0.19511,0.197829,0.200587,0.205761,0.207015,0.20853,0.209996,0.181343,0.182718,0.183461,0.182084,0.176191,0.185813,0.190292,0.193372,0.201705,0.194693,0.195237,0.195432,0.178707,0.179636,0.170301,0.170973,0.170366,0.171307,0.172145,0.173112]
new object=loadshape.res_kw_624_pu npts=96 interval=0.25 mult=[0.293732,0.277461,0.268748,0.261654,0.263569,0.264358,0.268967,0.271835,0.276578,0.281525,0.286285,0.290696,0.293923,0.297432,0.300767,0.385872,0.414009,0.446346,0.453945,0.455285,0.400959,0.329257,0.335457,0.341235,0.460969,0.49182,0.494807,0.498073,0.377369,0.351251,0.33741,0.317988,0.289145,0.263603,0.243045,0.228384,0.309097,0.203249,0.197044,0.193386,0.193093,0.193821,0.194223,0.193864,0.191329,0.186855,0.183218,0.180645,0.179341,0.177498,0.175541,0.17383,0.186562,0.182814,0.180943,0.178913,0.176301,0.172319,0.184124,0.179246,0.179055,0.177447,0.177275,0.178046,0.351817,0.26878,0.269187,0.27634,0.23397,0.223605,0.332423,0.354534,0.252237,0.339358,0.386272,0.395424,0.367586,0.339775,0.404792,0.350808,0.268362,0.349765,0.407673,0.28053,0.369722,0.290977,0.266993,0.276272,0.265065,0.277126,0.284969,0.305398,0.389294,0.307179,0.313865,0.315561] qmult=[0.199951,0.199951,0.199951,0.199951,0.199235,0.199235,0.199235,0.199235,0.198519,0.198519,0.198519,0.198519,0.197803,0.197803,0.197803,0.560507,0.576916,0.576916,0.576916,0.576916,0.404188,0.197087,0.197087,0.197087,0.198519,0.205829,0.205829,0.205829,0.207261,0.199951,0.199951,0.199951,0.200667,0.200667,0.200667,0.216612,0.454457,0.194211,0.191194,0.18934,0.188502,0.188805,0.188955,0.188757,0.187385,0.185197,0.183394,0.182077,0.182746,0.181858,0.180921,0.180095,0.212187,0.210475,0.209597,0.208649,0.205966,0.204163,0.234702,0.232519,0.237569,0.236873,0.236811,0.237162,0.543399,0.292659,0.292805,0.295911,0.289666,0.276898,0.557259,0.596338,0.276989,0.55171,0.654163,0.658441,0.557139,0.489368,0.649589,0.496219,0.27784,0.486207,0.625357,0.283702,0.532648,0.331779,0.243665,0.243665,0.202815,0.202815,0.202815,0.245821,0.437339,0.200667,0.200667,0.200667]
new object=loadshape.res_kw_33_pu npts=96 interval=0.25 mult=[0.142519,0.142228,0.142418,0.14234,0.141434,0.141193,0.140946,0.1407,0.140766,0.140966,0.141164,0.141368,0.141238,0.141472,0.141709,0.141954,0.146455,0.146698,0.146953,0.14722,0.151529,0.151696,0.151896,0.152125,0.162736,0.144673,0.145027,0.145362,0.146821,0.147004,0.171571,0.17114,0.16914,0.167661,0.19115,0.189704,0.436778,0.333218,0.181843,0.178654,0.149081,0.173655,0.144983,0.146125,0.388646,0.629535,0.343112,0.168373,0.168841,0.168734,0.141916,0.14188,0.141723,0.140021,0.138673,0.137049,0.197879,0.36906,0.551404,0.646938,0.456775,0.401932,0.654641,0.683491,0.696841,0.698973,0.564105,0.215579,0.251777,0.49017,0.514278,0.515492,0.534821,0.513399,0.530007,0.528202,0.535544,0.537052,0.537598,0.538145,0.536962,0.54563,0.547049,0.548077,0.513332,0.506043,0.50581,0.50625,0.295323,0.285489,0.264257,0.323454,0.299672,0.231659,0.178858,0.223639] qmult=[0.239212,0.238801,0.239069,0.238959,0.238324,0.237984,0.237634,0.237286,0.237206,0.237488,0.237768,0.238057,0.237972,0.238304,0.238639,0.238985,0.250263,0.250608,0.250969,0.251346,0.252711,0.252948,0.253229,0.253554,0.259894,0.241089,0.24159,0.242065,0.243382,0.24364,0.270354,0.269743,0.269948,0.267855,0.292343,0.2904,0.664968,0.509007,0.280928,0.276417,0.244136,0.270159,0.23834,0.239954,0.510924,0.600615,0.264837,0.265426,0.269235,0.269084,0.237118,0.237068,0.235936,0.233529,0.231621,0.229325,0.223705,0.218083,0.484156,0.628046,0.340903,0.258232,0.639094,0.673717,0.685249,0.688265,0.580696,0.318921,0.352321,0.712976,0.749063,0.750779,0.748011,0.71571,0.739202,0.736649,0.723746,0.725879,0.726651,0.727426,0.731117,0.745878,0.747885,0.749339,0.725932,0.713122,0.712793,0.713414,0.404584,0.329891,0.308786,0.527695,0.545269,0.29458,0.274812,0.35148]
new object=loadshape.res_kw_319_pu npts=96 interval=0.25 mult=[0.0726019,0.0690409,0.0677404,0.067052,0.0663455,0.0665478,0.0666136,0.0666119,0.0667133,0.0669691,0.0672425,0.0675141,0.0675556,0.0677603,0.0679662,0.0681569,0.0680215,0.0681941,0.0683705,0.0685434,0.0755658,0.075941,0.0763901,0.0768665,0.0841379,0.0847951,0.0983843,0.0971084,0.0716097,0.0726344,0.0726317,0.0723435,0.0706231,0.0696179,0.0685612,0.0676446,0.0660462,0.0653606,0.0646811,0.0640872,0.0637504,0.063639,0.0634973,0.0633535,0.0629575,0.0623812,0.0617761,0.0611139,0.0608498,0.0604964,0.0601618,0.0598424,0.098776,0.0784758,0.0780125,0.0774738,0.0766025,0.0759441,0.0752471,0.0745702,0.0961723,0.0956734,0.0954242,0.0746914,0.0788486,0.0807889,0.081175,0.0817122,0.089845,0.0892494,0.0902348,0.0911768,0.098492,0.0988585,0.0991875,0.10002,0.102208,0.104454,0.104843,0.0688401,0.0675347,0.100159,0.1016,0.102505,0.0954467,0.0966134,0.0969575,0.0972193,0.0915766,0.0916694,0.091857,0.0920174,0.0699932,0.0704169,0.070761,0.0710597] qmult=[0.197533,0.188689,0.185459,0.183749,0.18239,0.182892,0.183055,0.183051,0.183194,0.18383,0.184509,0.185183,0.185346,0.185854,0.186366,0.186839,0.186899,0.187328,0.187766,0.188195,0.202971,0.203903,0.205019,0.206202,0.212543,0.214175,0.235006,0.231837,0.193892,0.196437,0.19643,0.195715,0.193736,0.191239,0.188615,0.186338,0.184218,0.182515,0.180827,0.179352,0.178238,0.177962,0.17761,0.177253,0.176101,0.174669,0.173166,0.171522,0.171251,0.170373,0.169542,0.168749,0.236335,0.200136,0.198985,0.197647,0.194303,0.192668,0.190937,0.189256,0.227284,0.226045,0.225426,0.189054,0.195234,0.200347,0.201306,0.20264,0.213111,0.211338,0.213785,0.216125,0.220188,0.221099,0.221916,0.223985,0.219789,0.225661,0.226627,0.184813,0.180789,0.217837,0.221415,0.223662,0.218279,0.221177,0.222031,0.222682,0.213838,0.214068,0.214534,0.214933,0.189752,0.190805,0.191659,0.192401]
...